LAMMPS (23 Jun 2022 - Update 2)
units metal
boundary p p p
atom_style atomic
read_data Pd83Si17.lmp
Reading data file ...
  orthogonal box = (0 0 0) to (22.4692 23.7363 24.6136)
  reading atoms ...
  896 atoms
replicate 3 3 3
Replicating atoms ...
  orthogonal box = (0 0 0) to (67.4076 71.2089 73.8408)
  24192 atoms
  replicate CPU = 0.004 seconds
read_dump cooling_full.dump 1700000 x y z vx vy vz box yes replace yes
Scanning dump file ...
Reading snapshot from dump file ...
  orthogonal box = (-0.33649131 -0.35546699 -0.36860514) to (67.744091 71.564367 74.209405)
  24192 atoms before read
  24192 atoms in snapshot
  0 atoms purged
  24192 atoms replaced
  0 atoms trimmed
  0 atoms added
  24192 atoms after read
replicate 2 2 2
Replicating atoms ...
  orthogonal box = (-0.33649131 -0.35546699 -0.36860514) to (135.82467 143.4842 148.78742)
  193536 atoms
  replicate CPU = 0.011 seconds
mass 1 106.4
mass 2 28.09
pair_style eam/alloy
pair_coeff * * PdSi.lammps.eam Pd Si
timestep 0.0001

thermo 10
thermo_style custom step time temp etotal pe ke enthalpy density press vol ndanger

dump 1 all custom 100 heating_Si17.dump id type x y z

#velocity all create 300.0 4928459 rot yes dist gaussian

fix 1 all npt temp 300.0 2000 0.1 iso 0 0 0.5
run 17000
  update every 1 steps, delay 10 steps, check yes
Step          Time           Temp          TotEng         PotEng         KinEng        Enthalpy       Density         Press          Volume       Ndanger
1700000   1700           503.63373     -829017.66     -841616.74      12599.084     -828436.1       10.234136      318.95322      2921276.9              0
Averages over the last 851 of 1701 rows, steps 1708500 to 1717000:
Temp TotEng PotEng KinEng Enthalpy Density Press Volume Ndanger
853.596 -809812 -831166 21353.9 -809731 10.0824 43.8143 2.96535e+06 0
Loop time of 1470.48 on 6 procs for 17000 steps with 193536 atoms

unfix 1

#fix 2 all npt temp 2000.0 2000.0 0.1 iso 0 0 0.5
#run 100000
#unfix 2

#dump 2 all custom 170000 cooling_full.dump id type x y z vx vy vz fx fy fz

#fix 3 all npt temp 2000.0 300.0 0.1 iso 0 0 0.5
#run 1700000
